Version 4
SHEET 1 2488 1620
WIRE 1200 -144 656 -144
WIRE 1328 -144 1200 -144
WIRE 1408 -144 1328 -144
WIRE 1456 -144 1408 -144
WIRE 1792 -144 1456 -144
WIRE 1200 -112 1200 -144
WIRE 1328 -96 1328 -144
WIRE 1408 -96 1408 -144
WIRE 1792 -48 1792 -144
WIRE 1200 16 1200 -32
WIRE 1328 16 1328 -32
WIRE 1328 16 1200 16
WIRE 1408 16 1408 -32
WIRE 1408 16 1328 16
WIRE -496 32 -720 32
WIRE 1792 64 1792 32
WIRE 656 112 608 112
WIRE 752 112 656 112
WIRE 816 112 752 112
WIRE 944 112 880 112
WIRE 976 112 944 112
WIRE 1120 112 1040 112
WIRE 656 160 656 112
WIRE 1456 160 1456 -144
WIRE 944 176 944 112
WIRE -720 192 -720 32
WIRE 1792 208 1792 144
WIRE 752 240 752 112
WIRE 816 240 752 240
WIRE 1248 240 1072 240
WIRE 1360 240 1328 240
WIRE 1408 240 1360 240
WIRE 752 320 752 240
WIRE 816 320 752 320
WIRE 1120 320 1120 112
WIRE 1120 320 1072 320
WIRE 1360 320 1120 320
WIRE 1456 320 1456 256
WIRE 1456 320 1360 320
WIRE 1792 320 1792 288
WIRE 1792 320 1456 320
WIRE -992 384 -1008 384
WIRE -880 384 -912 384
WIRE 816 400 608 400
WIRE 1184 400 1072 400
WIRE 1456 400 1456 320
WIRE -1008 448 -1008 384
WIRE -880 448 -1008 448
WIRE -1008 464 -1008 448
WIRE 1184 480 1184 400
WIRE 1264 480 1184 480
WIRE 1376 480 1344 480
WIRE 1408 480 1376 480
WIRE 656 512 656 240
WIRE 752 512 752 384
WIRE 752 512 656 512
WIRE 944 512 944 464
WIRE 944 512 752 512
WIRE -1008 544 -1008 528
WIRE 944 544 944 512
WIRE 1376 576 1376 560
WIRE 1456 576 1456 496
WIRE 1456 576 1376 576
WIRE 1456 592 1456 576
WIRE -720 608 -720 512
WIRE -496 608 -496 112
WIRE -496 608 -720 608
WIRE -720 640 -720 608
WIRE 880 704 688 704
WIRE 880 784 880 704
FLAG 1456 592 0
FLAG 944 544 0
FLAG 1200 16 0
FLAG 608 112 5Vs
IOPIN 608 112 Out
FLAG 688 704 V_LEM
IOPIN 688 704 Out
FLAG 464 624 V_LEM
IOPIN 464 624 In
FLAG -720 640 0
FLAG 880 864 0
FLAG 608 400 In
IOPIN 608 400 In
FLAG 368 544 In
IOPIN 368 544 Out
FLAG 368 480 5Vs
IOPIN 368 480 Out
FLAG 656 -144 24Vs
IOPIN 656 -144 Out
FLAG -1008 544 0
SYMBOL LTC4449 944 320 R0
SYMATTR InstName U2
SYMBOL nmos 1408 160 R0
SYMATTR InstName M1
SYMATTR Value IPB011N04L
SYMBOL nmos 1408 400 R0
SYMATTR InstName M2
SYMATTR Value IPB011N04L
SYMBOL res 1344 224 R90
WINDOW 0 0 56 VBottom 2
WINDOW 3 39 47 VTop 2
SYMATTR InstName R1
SYMATTR Value 10
SYMATTR SpiceLine tol=1 pwr=0.1
SYMBOL res 1360 464 R90
WINDOW 0 0 56 VBottom 2
WINDOW 3 32 56 VTop 2
SYMATTR InstName R2
SYMATTR Value 10
SYMATTR SpiceLine tol=1 pwr=0.1
SYMBOL ind 1776 -64 R0
SYMATTR InstName L1
SYMATTR Value 100µ
SYMBOL res 1776 48 R0
SYMATTR InstName R3
SYMATTR Value .05
SYMBOL schottky 816 128 R270
WINDOW 0 32 32 VTop 2
WINDOW 3 0 32 VBottom 2
SYMATTR InstName D1
SYMATTR Value SS3P5
SYMATTR Description Diode
SYMATTR Type diode
SYMBOL voltage 656 144 R0
WINDOW 123 0 0 Left 0
WINDOW 39 0 0 Left 0
SYMATTR InstName V2
SYMATTR Value 5
SYMBOL cap 1040 96 R90
WINDOW 0 0 32 VBottom 2
WINDOW 3 32 32 VTop 2
SYMATTR InstName C1
SYMATTR Value 0.22µ
SYMBOL battery 1200 -128 R0
WINDOW 0 -56 17 Left 2
WINDOW 3 -58 75 Left 2
WINDOW 123 0 0 Left 0
WINDOW 39 0 0 Left 0
SYMATTR InstName V1
SYMATTR Value 24
SYMBOL polcap 1312 -96 R0
WINDOW 0 -29 9 Left 2
WINDOW 3 -62 48 Left 2
SYMATTR InstName C2
SYMATTR Value 1500µ
SYMATTR Description Capacitor
SYMATTR Type cap
SYMATTR SpiceLine V=50 Irms=2.41 Rser=0.026 Lser=0 mfg="Nichicon" pn="UPL1H152MRH" type="Al electrolytic"
SYMBOL cap 1392 -96 R0
WINDOW 0 -28 3 Left 2
WINDOW 3 -46 48 Left 2
SYMATTR InstName C3
SYMATTR Value 100n
SYMBOL cap 736 320 R0
SYMATTR InstName C6
SYMATTR Value 0.1µ
SYMATTR SpiceLine V=16 Irms=1.02 Rser=0.0850352 Lser=0 mfg="KEMET" pn="C1206F104K4RAC" type="X7R"
SYMBOL voltage -496 16 R0
WINDOW 123 0 0 Left 0
WINDOW 39 0 0 Left 0
SYMATTR InstName V3
SYMATTR Value 15
SYMBOL AD822 -176 1248 R180
SYMATTR InstName U4
SYMBOL res 1344 224 R0
WINDOW 0 38 40 Left 2
WINDOW 3 43 76 Left 2
SYMATTR InstName R16
SYMATTR Value 10k
SYMBOL res 1360 464 R0
SYMATTR InstName R17
SYMATTR Value 10k
SYMBOL LT1243 -720 352 R0
SYMATTR InstName U1
SYMBOL bv 880 768 M0
SYMATTR InstName B1
SYMATTR Value V=0.00416*I(L1)+2.5
SYMBOL voltage 1792 192 R0
WINDOW 123 0 0 Left 0
WINDOW 39 0 0 Left 0
SYMATTR InstName V5
SYMATTR Value 10
SYMBOL npn 80 1152 R0
SYMATTR InstName Q1
SYMATTR Value 2N3904
SYMBOL cap -1024 464 R0
SYMATTR InstName C4
SYMBOL res -896 368 R90
WINDOW 0 0 56 VBottom 2
WINDOW 3 32 56 VTop 2
SYMATTR InstName R4
TEXT 1648 1216 Left 2 !.tran 1s
