Version 4
SHEET 1 880 680
WIRE 192 -96 144 -96
WIRE 336 -96 256 -96
WIRE 144 16 144 -96
WIRE 192 16 144 16
WIRE 336 16 336 -96
WIRE 336 16 272 16
WIRE 656 48 656 16
WIRE -192 144 -288 144
WIRE -80 144 -192 144
WIRE 64 144 0 144
WIRE 144 144 144 16
WIRE 144 144 128 144
WIRE 192 144 144 144
WIRE 336 160 336 16
WIRE 336 160 256 160
WIRE 400 160 336 160
WIRE 512 160 480 160
WIRE 656 160 656 128
WIRE 768 160 656 160
WIRE 192 176 160 176
WIRE 768 176 768 160
WIRE 656 192 656 160
WIRE -80 256 -192 256
WIRE 160 256 160 176
WIRE 160 256 0 256
WIRE 656 304 656 272
WIRE -288 368 -288 224
WIRE -192 368 -192 336
WIRE -192 368 -288 368
WIRE -64 368 -192 368
WIRE 160 368 160 336
WIRE 160 368 -64 368
WIRE -64 400 -64 368
FLAG -64 400 0
FLAG 224 128 VCC
FLAG 224 192 VEE
FLAG 768 176 0
FLAG 656 16 VCC
FLAG 656 304 VEE
FLAG -192 144 VIN
FLAG 512 160 VOUT
SYMBOL AD822 224 96 R0
SYMATTR InstName U1
SYMBOL cap 64 160 R270
WINDOW 0 32 32 VTop 2
WINDOW 3 0 32 VBottom 2
SYMATTR InstName C1
SYMATTR Value 0.01µ
SYMBOL res 16 128 R90
WINDOW 0 0 56 VBottom 2
WINDOW 3 32 56 VTop 2
SYMATTR InstName R1
SYMATTR Value 1k
SYMBOL res 16 240 R90
WINDOW 0 0 56 VBottom 2
WINDOW 3 32 56 VTop 2
SYMATTR InstName R2
SYMATTR Value 1k
SYMBOL res 176 352 R180
WINDOW 0 36 76 Left 2
WINDOW 3 36 40 Left 2
SYMATTR InstName R3
SYMATTR Value 10k
SYMBOL voltage -288 128 R0
SYMATTR InstName V1
SYMATTR Value 3
SYMBOL voltage -192 240 R0
SYMATTR InstName V2
SYMATTR Value 2
SYMBOL res 288 0 R90
WINDOW 0 0 56 VBottom 2
WINDOW 3 32 56 VTop 2
SYMATTR InstName R5
SYMATTR Value 10k
SYMBOL cap 256 -112 R90
WINDOW 0 0 32 VBottom 2
WINDOW 3 32 32 VTop 2
SYMATTR InstName C2
SYMATTR Value 0.001n
SYMBOL voltage 656 32 R0
SYMATTR InstName V3
SYMATTR Value 15
SYMBOL voltage 656 176 R0
WINDOW 123 0 0 Left 0
WINDOW 39 0 0 Left 0
SYMATTR InstName V4
SYMATTR Value 15
SYMBOL res 496 144 R90
WINDOW 0 0 56 VBottom 2
WINDOW 3 32 56 VTop 2
SYMATTR InstName R4
SYMATTR Value 100
TEXT -322 424 Left 2 !.tran 50
