Version 4
SHEET 1 1572 680
WIRE 1440 -224 1216 -224
WIRE -48 -96 -96 -96
WIRE 96 -96 32 -96
WIRE 416 -64 416 -96
WIRE 1216 -64 1216 -224
WIRE -432 32 -528 32
WIRE -320 32 -432 32
WIRE -96 32 -96 -96
WIRE -96 32 -240 32
WIRE -48 32 -96 32
WIRE 96 48 96 -96
WIRE 96 48 16 48
WIRE 272 48 96 48
WIRE 416 48 416 16
WIRE 528 48 416 48
WIRE -48 64 -80 64
WIRE 528 64 528 48
WIRE 416 80 416 48
WIRE 944 128 928 128
WIRE 1056 128 1024 128
WIRE -320 144 -432 144
WIRE -80 144 -80 64
WIRE -80 144 -240 144
WIRE 416 192 416 160
WIRE 928 192 928 128
WIRE 1056 192 928 192
WIRE 928 208 928 192
WIRE -528 256 -528 112
WIRE -432 256 -432 224
WIRE -432 256 -528 256
WIRE -304 256 -432 256
WIRE -80 256 -80 224
WIRE -80 256 -304 256
WIRE -304 288 -304 256
WIRE 928 288 928 272
WIRE 1216 352 1216 256
WIRE 1440 352 1440 -144
WIRE 1440 352 1216 352
WIRE 1216 384 1216 352
FLAG -304 288 0
FLAG -16 16 VCC
FLAG -16 80 VEE
FLAG 528 64 0
FLAG 416 -96 VCC
FLAG 416 192 VEE
FLAG -432 32 VIN
FLAG 272 48 VOUT
FLAG 0 -208 Differential_Amplifier
FLAG 1216 384 0
FLAG 928 288 0
FLAG 1216 -304 PWM_Chip
SYMBOL AD822 -16 -16 R0
SYMATTR InstName U1
SYMBOL res -224 16 R90
WINDOW 0 0 56 VBottom 2
WINDOW 3 32 56 VTop 2
SYMATTR InstName R1
SYMATTR Value 10k
SYMBOL res -224 128 R90
WINDOW 0 0 56 VBottom 2
WINDOW 3 32 56 VTop 2
SYMATTR InstName R2
SYMATTR Value 10k
SYMBOL res -64 240 R180
WINDOW 0 36 76 Left 2
WINDOW 3 36 40 Left 2
SYMATTR InstName R3
SYMATTR Value 10k
SYMBOL voltage -528 16 R0
SYMATTR InstName V1
SYMATTR Value 2
SYMBOL voltage -432 128 R0
SYMATTR InstName V2
SYMATTR Value 3
SYMBOL res 48 -112 R90
WINDOW 0 0 56 VBottom 2
WINDOW 3 32 56 VTop 2
SYMATTR InstName R4
SYMATTR Value 10k
SYMBOL voltage 416 -80 R0
SYMATTR InstName V3
SYMATTR Value 15
SYMBOL voltage 416 64 R0
WINDOW 123 0 0 Left 0
WINDOW 39 0 0 Left 0
SYMATTR InstName V4
SYMATTR Value 15
SYMBOL voltage 1440 -240 R0
WINDOW 123 0 0 Left 0
WINDOW 39 0 0 Left 0
SYMATTR InstName V5
SYMATTR Value 15
SYMBOL LT1243 1216 96 R0
SYMATTR InstName U2
SYMBOL cap 912 208 R0
SYMATTR InstName C1
SYMBOL res 1040 112 R90
WINDOW 0 0 56 VBottom 2
WINDOW 3 32 56 VTop 2
SYMATTR InstName R5
TEXT -560 312 Left 2 !.tran 50
RECTANGLE Normal 608 400 -608 -208 2
RECTANGLE Normal 1568 464 816 -304 2
