Version 4
SHEET 1 880 680
WIRE 704 80 704 48
WIRE 240 176 176 176
WIRE 480 192 304 192
WIRE 560 192 480 192
WIRE 704 192 704 160
WIRE 816 192 704 192
WIRE -160 208 -256 208
WIRE -48 208 -160 208
WIRE 128 208 32 208
WIRE 240 208 208 208
WIRE 816 208 816 192
WIRE 704 224 704 192
WIRE 128 272 128 208
WIRE 208 272 208 208
WIRE 208 272 128 272
WIRE 176 288 176 176
WIRE 352 288 176 288
WIRE 480 288 480 192
WIRE 480 288 432 288
WIRE -48 320 -160 320
WIRE 128 320 128 272
WIRE 128 320 32 320
WIRE 704 336 704 304
WIRE -256 400 -256 288
WIRE -160 400 -256 400
WIRE -16 400 -160 400
WIRE 176 400 176 368
WIRE 176 400 -16 400
WIRE -16 432 -16 400
FLAG -16 432 0
FLAG 272 160 VCC
FLAG 272 224 VEE
FLAG 816 208 0
FLAG 704 48 VCC
FLAG 704 336 VEE
FLAG -160 208 VIN
FLAG 560 192 VOUT
SYMBOL AD822 272 128 R0
SYMATTR InstName U1
SYMBOL res 48 192 R90
WINDOW 0 0 56 VBottom 2
WINDOW 3 32 56 VTop 2
SYMATTR InstName R1
SYMATTR Value 1k
SYMBOL res 48 304 R90
WINDOW 0 0 56 VBottom 2
WINDOW 3 32 56 VTop 2
SYMATTR InstName R2
SYMATTR Value 1k
SYMBOL voltage -256 192 R0
SYMATTR InstName V1
SYMATTR Value 3
SYMBOL voltage -160 304 R0
SYMATTR InstName V2
SYMATTR Value 2
SYMBOL voltage 704 64 R0
SYMATTR InstName V3
SYMATTR Value 15
SYMBOL voltage 704 208 R0
WINDOW 123 0 0 Left 0
WINDOW 39 0 0 Left 0
SYMATTR InstName V4
SYMATTR Value 15
SYMBOL res 448 272 R90
WINDOW 0 0 56 VBottom 2
WINDOW 3 32 56 VTop 2
SYMATTR InstName R5
SYMATTR Value 100
SYMBOL res 160 272 R0
SYMATTR InstName R3
SYMATTR Value 100
TEXT -274 456 Left 2 !.tran 50
