Version 4
SHEET 1 880 680
WIRE 224 -32 48 -32
WIRE 224 64 224 48
WIRE 288 64 224 64
WIRE 224 96 224 64
WIRE 48 176 48 -32
WIRE 48 176 0 176
WIRE 176 176 48 176
WIRE 0 192 0 176
WIRE 0 288 0 272
WIRE 224 288 224 192
WIRE 224 288 0 288
WIRE 224 304 224 288
FLAG 224 304 0
FLAG 0 176 Vin
FLAG 288 64 Vout
SYMBOL voltage 0 176 R0
WINDOW 123 0 0 Left 0
WINDOW 39 0 0 Left 0
SYMATTR InstName V1
SYMATTR Value 10
SYMBOL nmos 176 96 R0
SYMATTR InstName M1
SYMBOL res 208 -48 R0
SYMATTR InstName R1
SYMATTR Value 1m
TEXT 296 248 Left 2 !.lib opamp.sub
TEXT -34 328 Left 2 !.dc V1 0 0.1
